
 OpenBabel08312119073D

277287  0  0  1  0  0  0  0  0999 V2000
    7.9207    1.3328    7.0544 C   0  0  0  0  0  0  0  0  0  0  0  0
    6.8300    0.4374    6.9245 O   0  0  0  0  0  0  0  0  0  0  0  0
    6.8021   -0.4037    5.8590 C   0  0  0  0  0  0  0  0  0  0  0  0
    7.8970   -0.5547    5.0050 C   0  0  0  0  0  0  0  0  0  0  0  0
    7.7918   -1.2790    3.8163 C   0  0  0  0  0  0  0  0  0  0  0  0
    8.8559   -1.1072    2.8266 C   0  0  0  0  0  0  0  0  0  0  0  0
    9.1887   -2.0001    1.8873 C   0  0  0  0  0  0  0  0  0  0  0  0
   10.2186   -1.7261    0.8482 C   0  0  0  0  0  0  0  0  0  0  0  0
   11.2853   -2.6464    1.0116 O   0  0  0  0  0  0  0  0  0  0  0  0
    6.6157   -1.9728    3.5507 C   0  0  0  0  0  0  0  0  0  0  0  0
    5.5476   -1.8820    4.4372 C   0  0  0  0  0  0  0  0  0  0  0  0
    5.6075   -1.0768    5.5752 C   0  0  0  0  0  0  0  0  0  0  0  0
    4.4359   -1.0191    6.2881 O   0  0  0  0  0  0  0  0  0  0  0  0
    3.8899    0.2930    6.6531 C   0  0  3  0  0  0  0  0  0  0  0  0
    3.8808    1.2275    5.4334 C   0  0  0  0  0  0  0  0  0  0  0  0
    3.0972    0.7420    4.3548 O   0  0  0  0  0  0  0  0  0  0  0  0
    2.5101    0.0038    7.4042 C   0  0  3  0  0  0  0  0  0  0  0  0
    2.8542   -0.1685    8.8833 O   0  0  0  0  0  0  0  0  0  0  0  0
    3.5544   -1.3470    9.2469 C   0  0  0  0  0  0  0  0  0  0  0  0
    4.9659   -1.4550    9.3299 C   0  0  0  0  0  0  0  0  0  0  0  0
    5.7624   -0.3959    9.0246 O   0  0  0  0  0  0  0  0  0  0  0  0
    6.4795    0.2260   10.0798 C   0  0  0  0  0  0  0  0  0  0  0  0
    5.6088   -2.7182    9.5261 C   0  0  0  0  0  0  0  0  0  0  0  0
    4.8927   -3.8942    9.7775 C   0  0  0  0  0  0  0  0  0  0  0  0
    5.5822   -5.2235    9.7524 C   0  0  0  0  0  0  0  0  0  0  0  0
    5.2342   -6.3781   10.3782 C   0  0  0  0  0  0  0  0  0  0  0  0
    5.9258   -7.7001   10.2271 C   0  0  0  0  0  0  0  0  0  0  0  0
    6.4194   -8.1680   11.4832 O   0  0  0  0  0  0  0  0  0  0  0  0
    3.5087   -3.7411    9.9189 C   0  0  0  0  0  0  0  0  0  0  0  0
    2.8646   -2.4873    9.6870 C   0  0  0  0  0  0  0  0  0  0  0  0
    1.5069   -2.4803    9.8720 O   0  0  0  0  0  0  0  0  0  0  0  0
    1.1329   -1.7067   11.0104 C   0  0  0  0  0  0  0  0  0  0  0  0
    1.2056    0.9447    7.0172 C   0  0  0  0  0  0  0  0  0  0  0  0
    1.2054    2.3548    6.9048 C   0  0  0  0  0  0  0  0  0  0  0  0
    0.0838    3.0652    6.3491 C   0  0  0  0  0  0  0  0  0  0  0  0
    0.2107    4.3749    5.9558 O   0  0  0  0  0  0  0  0  0  0  0  0
    0.8107    5.3713    6.7629 C   0  0  0  0  0  0  0  0  0  0  0  0
   -1.1486    2.4138    6.0102 C   0  0  0  0  0  0  0  0  0  0  0  0
   -2.2496    3.0390    5.4079 O   0  0  0  0  0  0  0  0  0  0  0  0
   -2.2294    4.4113    4.8878 C   0  0  3  0  0  0  0  0  0  0  0  0
   -2.9370    4.4523    3.5312 C   0  0  0  0  0  0  0  0  0  0  0  0
   -4.3217    4.5614    3.3584 C   0  0  0  0  0  0  0  0  0  0  0  0
   -4.9219    4.3710    2.1041 C   0  0  0  0  0  0  0  0  0  0  0  0
   -6.2379    4.7576    2.0492 O   0  0  0  0  0  0  0  0  0  0  0  0
   -7.2465    3.7654    1.8930 C   0  0  0  0  0  0  0  0  0  0  0  0
   -4.1012    4.0263    1.0084 C   0  0  0  0  0  0  0  0  0  0  0  0
   -4.4961    3.4541   -0.1877 O   0  0  0  0  0  0  0  0  0  0  0  0
   -5.6686    3.8045   -0.7797 C   0  0  0  0  0  0  0  0  0  0  0  0
   -5.9403    5.1857   -0.8898 C   0  0  0  0  0  0  0  0  0  0  0  0
   -7.1058    5.6498   -1.4748 C   0  0  0  0  0  0  0  0  0  0  0  0
   -7.3456    7.1006   -1.5007 C   0  0  0  0  0  0  0  0  0  0  0  0
   -8.5403    7.7018   -1.6208 C   0  0  0  0  0  0  0  0  0  0  0  0
   -8.7020    9.1851   -1.7073 C   0  0  0  0  0  0  0  0  0  0  0  0
   -9.2638    9.4935   -2.9742 O   0  0  0  0  0  0  0  0  0  0  0  0
   -7.9473    4.7023   -2.0531 C   0  0  0  0  0  0  0  0  0  0  0  0
   -7.6766    3.3087   -1.9813 C   0  0  0  0  0  0  0  0  0  0  0  0
   -8.5408    2.3833   -2.5303 O   0  0  0  0  0  0  0  0  0  0  0  0
   -9.4602    2.8822   -3.5061 C   0  0  0  0  0  0  0  0  0  0  0  0
   -6.5281    2.8185   -1.3000 C   0  0  0  0  0  0  0  0  0  0  0  0
   -6.4178    1.4370   -1.1582 O   0  0  0  0  0  0  0  0  0  0  0  0
   -5.2747    0.7493   -0.5400 C   0  0  3  0  0  0  0  0  0  0  0  0
   -5.3253    0.8786    0.9886 C   0  0  0  0  0  0  0  0  0  0  0  0
   -6.5691    0.3838    1.4931 O   0  0  0  0  0  0  0  0  0  0  0  0
   -5.3042   -0.8291   -0.7634 C   0  0  3  0  0  0  0  0  0  0  0  0
   -5.4579   -1.1380   -2.1588 O   0  0  0  0  0  0  0  0  0  0  0  0
   -6.7263   -1.3639   -2.6500 C   0  0  0  0  0  0  0  0  0  0  0  0
   -7.7870   -1.8218   -1.8484 C   0  0  0  0  0  0  0  0  0  0  0  0
   -9.0261   -2.1756   -2.3905 C   0  0  0  0  0  0  0  0  0  0  0  0
   -9.2458   -2.1046   -3.7601 C   0  0  0  0  0  0  0  0  0  0  0  0
  -10.4567   -2.7396   -4.2948 C   0  0  0  0  0  0  0  0  0  0  0  0
  -11.1334   -2.3655   -5.3904 C   0  0  0  0  0  0  0  0  0  0  0  0
  -12.2853   -3.1493   -5.9303 C   0  0  0  0  0  0  0  0  0  0  0  0
  -13.4397   -2.3284   -5.9427 O   0  0  0  0  0  0  0  0  0  0  0  0
   -8.2251   -1.5917   -4.5641 C   0  0  0  0  0  0  0  0  0  0  0  0
   -6.9702   -1.2200   -4.0292 C   0  0  0  0  0  0  0  0  0  0  0  0
   -6.1314   -0.7596   -5.0107 O   0  0  0  0  0  0  0  0  0  0  0  0
   -4.7782   -0.4803   -4.7005 C   0  0  0  0  0  0  0  0  0  0  0  0
   -4.0599   -1.5773   -0.1861 C   0  0  0  0  0  0  0  0  0  0  0  0
   -4.1579   -2.5938    0.7902 C   0  0  0  0  0  0  0  0  0  0  0  0
   -3.0106   -3.2322    1.3758 C   0  0  0  0  0  0  0  0  0  0  0  0
   -3.1710   -4.1618    2.3718 O   0  0  0  0  0  0  0  0  0  0  0  0
   -4.2787   -5.0416    2.1999 C   0  0  0  0  0  0  0  0  0  0  0  0
   -1.7105   -2.8330    1.0282 C   0  0  0  0  0  0  0  0  0  0  0  0
   -0.4780   -3.2813    1.5211 O   0  0  0  0  0  0  0  0  0  0  0  0
   -0.1634   -4.3882    2.3157 C   0  0  0  0  0  0  0  0  0  0  0  0
   -0.6569   -5.7040    2.1605 C   0  0  0  0  0  0  0  0  0  0  0  0
   -0.2081   -6.7538    3.0107 C   0  0  0  0  0  0  0  0  0  0  0  0
   -0.9389   -8.0205    3.3114 C   0  0  0  0  0  0  0  0  0  0  0  0
   -0.3201   -9.1217    3.7978 C   0  0  0  0  0  0  0  0  0  0  0  0
   -0.9007  -10.1225    4.7626 C   0  0  0  0  0  0  0  0  0  0  0  0
   -1.9049   -9.5258    5.5762 O   0  0  0  0  0  0  0  0  0  0  0  0
    0.8151   -6.4839    3.9235 C   0  0  0  0  0  0  0  0  0  0  0  0
    1.3115   -5.2096    4.1248 C   0  0  0  0  0  0  0  0  0  0  0  0
    2.1355   -5.2140    5.2147 O   0  0  0  0  0  0  0  0  0  0  0  0
    3.0142   -4.1367    5.4210 C   0  0  0  0  0  0  0  0  0  0  0  0
    0.8458   -4.1668    3.3108 C   0  0  0  0  0  0  0  0  0  0  0  0
    1.3427   -2.9016    3.5261 O   0  0  0  0  0  0  0  0  0  0  0  0
    0.9297   -2.2910    2.8904 H   0  0  0  0  0  0  0  0  0  0  0  0
   -1.6188   -1.7483    0.0976 C   0  0  0  0  0  0  0  0  0  0  0  0
   -0.3543   -1.2514   -0.1425 O   0  0  0  0  0  0  0  0  0  0  0  0
   -0.2003   -0.2250   -1.1299 C   0  0  0  0  0  0  0  0  0  0  0  0
   -2.7729   -1.1778   -0.5119 C   0  0  0  0  0  0  0  0  0  0  0  0
   -2.6992    4.0545    1.1368 C   0  0  0  0  0  0  0  0  0  0  0  0
   -1.9748    3.7636    0.0048 O   0  0  0  0  0  0  0  0  0  0  0  0
   -0.5981    4.1220   -0.0057 C   0  0  0  0  0  0  0  0  0  0  0  0
   -2.1345    4.3034    2.3812 C   0  0  0  0  0  0  0  0  0  0  0  0
   -2.6567    5.4287    5.9807 C   0  0  3  0  0  0  0  0  0  0  0  0
   -2.3848    6.8924    5.6007 C   0  0  0  0  0  0  0  0  0  0  0  0
   -2.4398    7.7110    6.7823 O   0  0  0  0  0  0  0  0  0  0  0  0
   -4.0589    5.3710    6.2970 O   0  0  0  0  0  0  0  0  0  0  0  0
   -4.4620    4.8188    7.4710 C   0  0  0  0  0  0  0  0  0  0  0  0
   -3.6879    3.8935    8.1673 C   0  0  0  0  0  0  0  0  0  0  0  0
   -4.1348    3.3490    9.3557 C   0  0  0  0  0  0  0  0  0  0  0  0
   -5.3940    3.6487    9.8557 C   0  0  0  0  0  0  0  0  0  0  0  0
   -5.8702    2.9385   11.0700 C   0  0  0  0  0  0  0  0  0  0  0  0
   -6.5949    3.5397   12.0000 C   0  0  0  0  0  0  0  0  0  0  0  0
   -7.0438    2.8579   13.2624 C   0  0  0  0  0  0  0  0  0  0  0  0
   -6.5838    3.6176   14.3734 O   0  0  0  0  0  0  0  0  0  0  0  0
   -6.1812    4.5605    9.1719 C   0  0  0  0  0  0  0  0  0  0  0  0
   -5.7110    5.1553    8.0064 C   0  0  0  0  0  0  0  0  0  0  0  0
   -6.6075    6.0929    7.5261 O   0  0  0  0  0  0  0  0  0  0  0  0
   -6.6159    6.2790    6.1224 C   0  0  0  0  0  0  0  0  0  0  0  0
   -1.2893    1.0178    6.3139 C   0  0  0  0  0  0  0  0  0  0  0  0
   -2.6350    0.5361    6.2680 O   0  0  0  0  0  0  0  0  0  0  0  0
   -3.2915   -0.6805    6.6150 C   0  0  0  0  0  0  0  0  0  0  0  0
   -3.5975   -1.5918    5.5647 C   0  0  0  0  0  0  0  0  0  0  0  0
   -2.8135   -1.7006    4.4447 O   0  0  0  0  0  0  0  0  0  0  0  0
   -1.5683   -2.2631    4.8178 C   0  0  0  0  0  0  0  0  0  0  0  0
   -4.7315   -2.4802    5.5253 C   0  0  0  0  0  0  0  0  0  0  0  0
   -5.6988   -2.5151    6.5255 C   0  0  0  0  0  0  0  0  0  0  0  0
   -6.8843   -3.4324    6.3398 C   0  0  0  0  0  0  0  0  0  0  0  0
   -8.0668   -3.5436    6.9897 C   0  0  0  0  0  0  0  0  0  0  0  0
   -9.1764   -4.5132    6.6090 C   0  0  0  0  0  0  0  0  0  0  0  0
   -9.4804   -5.3927    7.6884 O   0  0  0  0  0  0  0  0  0  0  0  0
   -5.3846   -1.7030    7.6226 C   0  0  0  0  0  0  0  0  0  0  0  0
   -4.1867   -0.8346    7.7181 C   0  0  0  0  0  0  0  0  0  0  0  0
   -4.1367   -0.3519    9.0257 O   0  0  0  0  0  0  0  0  0  0  0  0
   -3.0664    0.1024    9.7395 C   0  0  0  0  0  0  0  0  0  0  0  0
   -1.7623    0.2250    9.3613 C   0  0  0  0  0  0  0  0  0  0  0  0
   -1.1216   -0.7404    8.6420 O   0  0  0  0  0  0  0  0  0  0  0  0
   -1.4843   -2.0908    8.8813 C   0  0  0  0  0  0  0  0  0  0  0  0
   -0.8921    1.1704    9.9621 C   0  0  0  0  0  0  0  0  0  0  0  0
   -1.1913    1.7448   11.1947 C   0  0  0  0  0  0  0  0  0  0  0  0
   -0.2253    2.5717   11.9651 C   0  0  0  0  0  0  0  0  0  0  0  0
    0.8998    3.1613   11.5111 C   0  0  0  0  0  0  0  0  0  0  0  0
    1.9267    3.8422   12.3767 C   0  0  0  0  0  0  0  0  0  0  0  0
    3.1890    3.2489   12.0882 O   0  0  0  0  0  0  0  0  0  0  0  0
   -2.3655    1.2757   11.7948 C   0  0  0  0  0  0  0  0  0  0  0  0
   -3.2525    0.4267   11.0860 C   0  0  0  0  0  0  0  0  0  0  0  0
   -4.2453   -0.2052   11.8010 O   0  0  0  0  0  0  0  0  0  0  0  0
   -3.7563   -1.4833   12.2500 C   0  0  0  0  0  0  0  0  0  0  0  0
   -0.0624    0.3265    6.6647 C   0  0  0  0  0  0  0  0  0  0  0  0
    7.6627    2.0582    7.8304 H   0  0  0  0  0  0  0  0  0  0  0  0
    8.0868    1.8899    6.1274 H   0  0  0  0  0  0  0  0  0  0  0  0
    8.8249    0.8035    7.3722 H   0  0  0  0  0  0  0  0  0  0  0  0
    8.8462   -0.0703    5.2202 H   0  0  0  0  0  0  0  0  0  0  0  0
    9.3658   -0.1425    2.8520 H   0  0  0  0  0  0  0  0  0  0  0  0
    8.6977   -2.9731    1.8300 H   0  0  0  0  0  0  0  0  0  0  0  0
   10.6205   -0.7076    0.9200 H   0  0  0  0  0  0  0  0  0  0  0  0
    9.7881   -1.8489   -0.1494 H   0  0  0  0  0  0  0  0  0  0  0  0
   11.5054   -2.6537    1.9639 H   0  0  0  0  0  0  0  0  0  0  0  0
    6.4871   -2.5451    2.6350 H   0  0  0  0  0  0  0  0  0  0  0  0
    4.6252   -2.3726    4.1714 H   0  0  0  0  0  0  0  0  0  0  0  0
    4.5503    0.7567    7.3898 H   0  0  0  0  0  0  0  0  0  0  0  0
    4.8959    1.3752    5.0464 H   0  0  0  0  0  0  0  0  0  0  0  0
    3.5476    2.2309    5.6984 H   0  0  0  0  0  0  0  0  0  0  0  0
    3.6662    0.1265    3.8552 H   0  0  0  0  0  0  0  0  0  0  0  0
    2.1785   -0.9968    7.1037 H   0  0  0  0  0  0  0  0  0  0  0  0
    7.5574    0.2016    9.8576 H   0  0  0  0  0  0  0  0  0  0  0  0
    6.3105   -0.1911   11.0741 H   0  0  0  0  0  0  0  0  0  0  0  0
    6.1854    1.2839   10.0721 H   0  0  0  0  0  0  0  0  0  0  0  0
    6.6966   -2.7629    9.4167 H   0  0  0  0  0  0  0  0  0  0  0  0
    6.4519   -5.2556    9.0933 H   0  0  0  0  0  0  0  0  0  0  0  0
    4.3379   -6.3612   11.0137 H   0  0  0  0  0  0  0  0  0  0  0  0
    6.7681   -7.6783    9.5242 H   0  0  0  0  0  0  0  0  0  0  0  0
    5.2256   -8.4716    9.8587 H   0  0  0  0  0  0  0  0  0  0  0  0
    6.9760   -7.4564   11.8406 H   0  0  0  0  0  0  0  0  0  0  0  0
    2.8854   -4.5989   10.1720 H   0  0  0  0  0  0  0  0  0  0  0  0
    0.5783   -2.3485   11.7024 H   0  0  0  0  0  0  0  0  0  0  0  0
    0.4571   -0.9323   10.6668 H   0  0  0  0  0  0  0  0  0  0  0  0
    1.9596   -1.2316   11.5492 H   0  0  0  0  0  0  0  0  0  0  0  0
    2.0976    2.9234    7.1391 H   0  0  0  0  0  0  0  0  0  0  0  0
    0.6441    6.3268    6.2445 H   0  0  0  0  0  0  0  0  0  0  0  0
    1.8887    5.2350    6.8363 H   0  0  0  0  0  0  0  0  0  0  0  0
    0.3257    5.4515    7.7386 H   0  0  0  0  0  0  0  0  0  0  0  0
   -1.2197    4.6777    4.5847 H   0  0  0  0  0  0  0  0  0  0  0  0
   -4.9728    4.7719    4.1976 H   0  0  0  0  0  0  0  0  0  0  0  0
   -7.9800    3.8557    2.6982 H   0  0  0  0  0  0  0  0  0  0  0  0
   -6.8782    2.7507    1.9086 H   0  0  0  0  0  0  0  0  0  0  0  0
   -7.7929    3.9486    0.9646 H   0  0  0  0  0  0  0  0  0  0  0  0
   -5.2495    5.8991   -0.4425 H   0  0  0  0  0  0  0  0  0  0  0  0
   -6.4545    7.7208   -1.4086 H   0  0  0  0  0  0  0  0  0  0  0  0
   -9.4621    7.1293   -1.6725 H   0  0  0  0  0  0  0  0  0  0  0  0
   -7.7499    9.7172   -1.6146 H   0  0  0  0  0  0  0  0  0  0  0  0
   -9.3777    9.5500   -0.9286 H   0  0  0  0  0  0  0  0  0  0  0  0
   -8.7131    9.0532   -3.6450 H   0  0  0  0  0  0  0  0  0  0  0  0
   -8.8327    5.0735   -2.5578 H   0  0  0  0  0  0  0  0  0  0  0  0
  -10.0344    2.0421   -3.9048 H   0  0  0  0  0  0  0  0  0  0  0  0
   -8.9303    3.3573   -4.3409 H   0  0  0  0  0  0  0  0  0  0  0  0
  -10.1847    3.5759   -3.0627 H   0  0  0  0  0  0  0  0  0  0  0  0
   -4.3596    1.1526   -0.9850 H   0  0  0  0  0  0  0  0  0  0  0  0
   -5.2418    1.8920    1.3237 H   0  0  0  0  0  0  0  0  0  0  0  0
   -4.5083    0.3497    1.4856 H   0  0  0  0  0  0  0  0  0  0  0  0
   -7.2628    0.7587    0.9120 H   0  0  0  0  0  0  0  0  0  0  0  0
   -6.1361   -1.2210   -0.1845 H   0  0  0  0  0  0  0  0  0  0  0  0
   -7.7042   -1.9812   -0.7813 H   0  0  0  0  0  0  0  0  0  0  0  0
   -9.8011   -2.5504   -1.7253 H   0  0  0  0  0  0  0  0  0  0  0  0
  -10.7782   -3.6261   -3.7487 H   0  0  0  0  0  0  0  0  0  0  0  0
  -10.8399   -1.4854   -5.9551 H   0  0  0  0  0  0  0  0  0  0  0  0
  -12.4995   -4.0447   -5.3367 H   0  0  0  0  0  0  0  0  0  0  0  0
  -12.0709   -3.4667   -6.9548 H   0  0  0  0  0  0  0  0  0  0  0  0
  -13.5644   -2.0083   -5.0334 H   0  0  0  0  0  0  0  0  0  0  0  0
   -8.3659   -1.5237   -5.6414 H   0  0  0  0  0  0  0  0  0  0  0  0
   -4.3179   -0.0651   -5.6038 H   0  0  0  0  0  0  0  0  0  0  0  0
   -4.2397   -1.3999   -4.4526 H   0  0  0  0  0  0  0  0  0  0  0  0
   -4.6816    0.2801   -3.9210 H   0  0  0  0  0  0  0  0  0  0  0  0
   -5.1527   -2.8383    1.1561 H   0  0  0  0  0  0  0  0  0  0  0  0
   -4.1747   -5.8599    2.9175 H   0  0  0  0  0  0  0  0  0  0  0  0
   -4.2868   -5.4719    1.1920 H   0  0  0  0  0  0  0  0  0  0  0  0
   -5.2252   -4.5377    2.4174 H   0  0  0  0  0  0  0  0  0  0  0  0
   -1.3942   -5.9190    1.3948 H   0  0  0  0  0  0  0  0  0  0  0  0
   -2.0062   -7.8949    3.4648 H   0  0  0  0  0  0  0  0  0  0  0  0
    0.7530   -9.2455    3.6632 H   0  0  0  0  0  0  0  0  0  0  0  0
   -0.1062  -10.4773    5.4339 H   0  0  0  0  0  0  0  0  0  0  0  0
   -1.3141  -10.9942    4.2527 H   0  0  0  0  0  0  0  0  0  0  0  0
   -1.4584   -9.2289    6.3897 H   0  0  0  0  0  0  0  0  0  0  0  0
    1.1918   -7.2596    4.5899 H   0  0  0  0  0  0  0  0  0  0  0  0
    3.9081   -4.5275    5.9198 H   0  0  0  0  0  0  0  0  0  0  0  0
    2.5581   -3.3881    6.0727 H   0  0  0  0  0  0  0  0  0  0  0  0
    3.3311   -3.7264    4.4707 H   0  0  0  0  0  0  0  0  0  0  0  0
    0.8141   -0.3046   -1.5271 H   0  0  0  0  0  0  0  0  0  0  0  0
   -0.3208    0.7707   -0.6858 H   0  0  0  0  0  0  0  0  0  0  0  0
   -0.8642   -0.3402   -1.9920 H   0  0  0  0  0  0  0  0  0  0  0  0
   -2.6873   -0.3666   -1.2269 H   0  0  0  0  0  0  0  0  0  0  0  0
   -0.2512    4.0667   -1.0427 H   0  0  0  0  0  0  0  0  0  0  0  0
   -0.0077    3.4121    0.5818 H   0  0  0  0  0  0  0  0  0  0  0  0
   -0.4404    5.1498    0.3381 H   0  0  0  0  0  0  0  0  0  0  0  0
   -1.0546    4.3160    2.4916 H   0  0  0  0  0  0  0  0  0  0  0  0
   -2.0642    5.2540    6.8806 H   0  0  0  0  0  0  0  0  0  0  0  0
   -3.1307    7.2850    4.9082 H   0  0  0  0  0  0  0  0  0  0  0  0
   -1.3874    7.0257    5.1768 H   0  0  0  0  0  0  0  0  0  0  0  0
   -3.2254    7.4183    7.2839 H   0  0  0  0  0  0  0  0  0  0  0  0
   -2.7215    3.5442    7.8159 H   0  0  0  0  0  0  0  0  0  0  0  0
   -3.4719    2.6843    9.8751 H   0  0  0  0  0  0  0  0  0  0  0  0
   -5.5882    1.8904   11.1343 H   0  0  0  0  0  0  0  0  0  0  0  0
   -6.8909    4.5785   11.9145 H   0  0  0  0  0  0  0  0  0  0  0  0
   -6.6497    1.8315   13.3610 H   0  0  0  0  0  0  0  0  0  0  0  0
   -8.1256    2.8315   13.2915 H   0  0  0  0  0  0  0  0  0  0  0  0
   -5.6178    3.7285   14.2799 H   0  0  0  0  0  0  0  0  0  0  0  0
   -7.1708    4.8163    9.5250 H   0  0  0  0  0  0  0  0  0  0  0  0
   -7.5497    6.7914    5.8723 H   0  0  0  0  0  0  0  0  0  0  0  0
   -6.6248    5.3218    5.5940 H   0  0  0  0  0  0  0  0  0  0  0  0
   -5.7975    6.9277    5.8015 H   0  0  0  0  0  0  0  0  0  0  0  0
   -1.1201   -2.6565    3.9234 H   0  0  0  0  0  0  0  0  0  0  0  0
   -1.6249   -3.0685    5.5655 H   0  0  0  0  0  0  0  0  0  0  0  0
   -0.9159   -1.4724    5.1484 H   0  0  0  0  0  0  0  0  0  0  0  0
   -4.8473   -3.1288    4.6548 H   0  0  0  0  0  0  0  0  0  0  0  0
   -6.7543   -4.1078    5.4878 H   0  0  0  0  0  0  0  0  0  0  0  0
   -8.3093   -2.8876    7.8182 H   0  0  0  0  0  0  0  0  0  0  0  0
   -8.9198   -5.1469    5.7555 H   0  0  0  0  0  0  0  0  0  0  0  0
  -10.1053   -3.9852    6.3533 H   0  0  0  0  0  0  0  0  0  0  0  0
   -8.6374   -5.6174    8.1175 H   0  0  0  0  0  0  0  0  0  0  0  0
   -6.0727   -1.7055    8.4711 H   0  0  0  0  0  0  0  0  0  0  0  0
   -0.5939   -2.6901    8.7010 H   0  0  0  0  0  0  0  0  0  0  0  0
   -2.2318   -2.4476    8.1761 H   0  0  0  0  0  0  0  0  0  0  0  0
   -1.8110   -2.2563    9.9060 H   0  0  0  0  0  0  0  0  0  0  0  0
    0.0880    1.3175    9.5202 H   0  0  0  0  0  0  0  0  0  0  0  0
   -0.4518    2.6542   13.0260 H   0  0  0  0  0  0  0  0  0  0  0  0
    1.1600    3.1398   10.4566 H   0  0  0  0  0  0  0  0  0  0  0  0
    1.7330    3.7361   13.4489 H   0  0  0  0  0  0  0  0  0  0  0  0
    2.0019    4.9102   12.1475 H   0  0  0  0  0  0  0  0  0  0  0  0
    3.1020    2.2941   12.2477 H   0  0  0  0  0  0  0  0  0  0  0  0
   -2.6057    1.5427   12.8185 H   0  0  0  0  0  0  0  0  0  0  0  0
   -3.4438   -1.4100   13.2963 H   0  0  0  0  0  0  0  0  0  0  0  0
   -2.9037   -1.8622   11.6733 H   0  0  0  0  0  0  0  0  0  0  0  0
   -4.5588   -2.2210   12.1666 H   0  0  0  0  0  0  0  0  0  0  0  0
   -0.0704   -0.7551    6.7365 H   0  0  0  0  0  0  0  0  0  0  0  0
  1  2  1  0  0  0  0
  1153  1  0  0  0  0
  1154  1  0  0  0  0
  1155  1  0  0  0  0
  2  3  1  0  0  0  0
  3  4  2  0  0  0  0
  3 12  1  0  0  0  0
  4  5  1  0  0  0  0
  4156  1  0  0  0  0
  5  6  1  0  0  0  0
  5 10  2  0  0  0  0
  6  7  2  0  0  0  0
  6157  1  0  0  0  0
  7  8  1  0  0  0  0
  7158  1  0  0  0  0
  8  9  1  0  0  0  0
  8159  1  0  0  0  0
  8160  1  0  0  0  0
  9161  1  0  0  0  0
 10 11  1  0  0  0  0
 10162  1  0  0  0  0
 11 12  2  0  0  0  0
 11163  1  0  0  0  0
 12 13  1  0  0  0  0
 13 14  1  0  0  0  0
 14 15  1  0  0  0  0
 14 17  1  0  0  0  0
 14164  1  0  0  0  0
 15 16  1  0  0  0  0
 15165  1  0  0  0  0
 15166  1  0  0  0  0
 16167  1  0  0  0  0
 17 18  1  0  0  0  0
 17 33  1  0  0  0  0
 17168  1  0  0  0  0
 18 19  1  0  0  0  0
 19 20  2  0  0  0  0
 19 30  1  0  0  0  0
 20 21  1  0  0  0  0
 20 23  1  0  0  0  0
 21 22  1  0  0  0  0
 22169  1  0  0  0  0
 22170  1  0  0  0  0
 22171  1  0  0  0  0
 23 24  2  0  0  0  0
 23172  1  0  0  0  0
 24 25  1  0  0  0  0
 24 29  1  0  0  0  0
 25 26  2  0  0  0  0
 25173  1  0  0  0  0
 26 27  1  0  0  0  0
 26174  1  0  0  0  0
 27 28  1  0  0  0  0
 27175  1  0  0  0  0
 27176  1  0  0  0  0
 28177  1  0  0  0  0
 29 30  2  0  0  0  0
 29178  1  0  0  0  0
 30 31  1  0  0  0  0
 31 32  1  0  0  0  0
 32179  1  0  0  0  0
 32180  1  0  0  0  0
 32181  1  0  0  0  0
 33 34  2  0  0  0  0
 33152  1  0  0  0  0
 34 35  1  0  0  0  0
 34182  1  0  0  0  0
 35 36  1  0  0  0  0
 35 38  2  0  0  0  0
 36 37  1  0  0  0  0
 37183  1  0  0  0  0
 37184  1  0  0  0  0
 37185  1  0  0  0  0
 38 39  1  0  0  0  0
 38123  1  0  0  0  0
 39 40  1  0  0  0  0
 40 41  1  0  0  0  0
 40107  1  0  0  0  0
 40186  1  0  0  0  0
 41 42  2  0  0  0  0
 41106  1  0  0  0  0
 42 43  1  0  0  0  0
 42187  1  0  0  0  0
 43 44  1  0  0  0  0
 43 46  2  0  0  0  0
 44 45  1  0  0  0  0
 45188  1  0  0  0  0
 45189  1  0  0  0  0
 45190  1  0  0  0  0
 46 47  1  0  0  0  0
 46103  1  0  0  0  0
 47 48  1  0  0  0  0
 48 49  2  0  0  0  0
 48 59  1  0  0  0  0
 49 50  1  0  0  0  0
 49191  1  0  0  0  0
 50 51  1  0  0  0  0
 50 55  2  0  0  0  0
 51 52  2  0  0  0  0
 51192  1  0  0  0  0
 52 53  1  0  0  0  0
 52193  1  0  0  0  0
 53 54  1  0  0  0  0
 53194  1  0  0  0  0
 53195  1  0  0  0  0
 54196  1  0  0  0  0
 55 56  1  0  0  0  0
 55197  1  0  0  0  0
 56 57  1  0  0  0  0
 56 59  2  0  0  0  0
 57 58  1  0  0  0  0
 58198  1  0  0  0  0
 58199  1  0  0  0  0
 58200  1  0  0  0  0
 59 60  1  0  0  0  0
 60 61  1  0  0  0  0
 61 62  1  0  0  0  0
 61 64  1  0  0  0  0
 61201  1  0  0  0  0
 62 63  1  0  0  0  0
 62202  1  0  0  0  0
 62203  1  0  0  0  0
 63204  1  0  0  0  0
 64 65  1  0  0  0  0
 64 78  1  0  0  0  0
 64205  1  0  0  0  0
 65 66  1  0  0  0  0
 66 67  2  0  0  0  0
 66 75  1  0  0  0  0
 67 68  1  0  0  0  0
 67206  1  0  0  0  0
 68 69  2  0  0  0  0
 68207  1  0  0  0  0
 69 70  1  0  0  0  0
 69 74  1  0  0  0  0
 70 71  2  0  0  0  0
 70208  1  0  0  0  0
 71 72  1  0  0  0  0
 71209  1  0  0  0  0
 72 73  1  0  0  0  0
 72210  1  0  0  0  0
 72211  1  0  0  0  0
 73212  1  0  0  0  0
 74 75  2  0  0  0  0
 74213  1  0  0  0  0
 75 76  1  0  0  0  0
 76 77  1  0  0  0  0
 77214  1  0  0  0  0
 77215  1  0  0  0  0
 77216  1  0  0  0  0
 78 79  2  0  0  0  0
 78102  1  0  0  0  0
 79 80  1  0  0  0  0
 79217  1  0  0  0  0
 80 81  1  0  0  0  0
 80 83  2  0  0  0  0
 81 82  1  0  0  0  0
 82218  1  0  0  0  0
 82219  1  0  0  0  0
 82220  1  0  0  0  0
 83 84  1  0  0  0  0
 83 99  1  0  0  0  0
 84 85  1  0  0  0  0
 85 86  2  0  0  0  0
 85 96  1  0  0  0  0
 86 87  1  0  0  0  0
 86221  1  0  0  0  0
 87 88  1  0  0  0  0
 87 92  2  0  0  0  0
 88 89  2  0  0  0  0
 88222  1  0  0  0  0
 89 90  1  0  0  0  0
 89223  1  0  0  0  0
 90 91  1  0  0  0  0
 90224  1  0  0  0  0
 90225  1  0  0  0  0
 91226  1  0  0  0  0
 92 93  1  0  0  0  0
 92227  1  0  0  0  0
 93 94  1  0  0  0  0
 93 96  2  0  0  0  0
 94 95  1  0  0  0  0
 95228  1  0  0  0  0
 95229  1  0  0  0  0
 95230  1  0  0  0  0
 96 97  1  0  0  0  0
 97 98  1  0  0  0  0
 99100  1  0  0  0  0
 99102  2  0  0  0  0
100101  1  0  0  0  0
101231  1  0  0  0  0
101232  1  0  0  0  0
101233  1  0  0  0  0
102234  1  0  0  0  0
103104  1  0  0  0  0
103106  2  0  0  0  0
104105  1  0  0  0  0
105235  1  0  0  0  0
105236  1  0  0  0  0
105237  1  0  0  0  0
106238  1  0  0  0  0
107108  1  0  0  0  0
107110  1  0  0  0  0
107239  1  0  0  0  0
108109  1  0  0  0  0
108240  1  0  0  0  0
108241  1  0  0  0  0
109242  1  0  0  0  0
110111  1  0  0  0  0
111112  2  0  0  0  0
111120  1  0  0  0  0
112113  1  0  0  0  0
112243  1  0  0  0  0
113114  2  0  0  0  0
113244  1  0  0  0  0
114115  1  0  0  0  0
114119  1  0  0  0  0
115116  2  0  0  0  0
115245  1  0  0  0  0
116117  1  0  0  0  0
116246  1  0  0  0  0
117118  1  0  0  0  0
117247  1  0  0  0  0
117248  1  0  0  0  0
118249  1  0  0  0  0
119120  2  0  0  0  0
119250  1  0  0  0  0
120121  1  0  0  0  0
121122  1  0  0  0  0
122251  1  0  0  0  0
122252  1  0  0  0  0
122253  1  0  0  0  0
123124  1  0  0  0  0
123152  2  0  0  0  0
124125  1  0  0  0  0
125126  2  0  0  0  0
125136  1  0  0  0  0
126127  1  0  0  0  0
126129  1  0  0  0  0
127128  1  0  0  0  0
128254  1  0  0  0  0
128255  1  0  0  0  0
128256  1  0  0  0  0
129130  2  0  0  0  0
129257  1  0  0  0  0
130131  1  0  0  0  0
130135  1  0  0  0  0
131132  2  0  0  0  0
131258  1  0  0  0  0
132133  1  0  0  0  0
132259  1  0  0  0  0
133134  1  0  0  0  0
133260  1  0  0  0  0
133261  1  0  0  0  0
134262  1  0  0  0  0
135136  2  0  0  0  0
135263  1  0  0  0  0
136137  1  0  0  0  0
137138  1  0  0  0  0
138139  2  0  0  0  0
138149  1  0  0  0  0
139140  1  0  0  0  0
139142  1  0  0  0  0
140141  1  0  0  0  0
141264  1  0  0  0  0
141265  1  0  0  0  0
141266  1  0  0  0  0
142143  2  0  0  0  0
142267  1  0  0  0  0
143144  1  0  0  0  0
143148  1  0  0  0  0
144145  2  0  0  0  0
144268  1  0  0  0  0
145146  1  0  0  0  0
145269  1  0  0  0  0
146147  1  0  0  0  0
146270  1  0  0  0  0
146271  1  0  0  0  0
147272  1  0  0  0  0
148149  2  0  0  0  0
148273  1  0  0  0  0
149150  1  0  0  0  0
150151  1  0  0  0  0
151274  1  0  0  0  0
151275  1  0  0  0  0
151276  1  0  0  0  0
152277  1  0  0  0  0
M  END
