
 OpenBabel08312119083D

323335  0  0  1  0  0  0  0  0999 V2000
    7.0761   -0.5683   -1.4763 C   0  0  0  0  0  0  0  0  0  0  0  0
    5.6310   -0.6720   -1.5252 O   0  0  0  0  0  0  0  0  0  0  0  0
    4.9293   -0.2772   -0.4074 C   0  0  0  0  0  0  0  0  0  0  0  0
    5.5330    0.6560    0.4654 C   0  0  0  0  0  0  0  0  0  0  0  0
    5.1849    0.7962    1.8042 C   0  0  0  0  0  0  0  0  0  0  0  0
    5.9823    1.7044    2.6305 C   0  0  0  0  0  0  0  0  0  0  0  0
    6.2704    1.6884    3.9443 C   0  0  0  0  0  0  0  0  0  0  0  0
    7.2747    2.6101    4.5909 C   0  0  0  0  0  0  0  0  0  0  0  0
    7.8449    3.5142    3.6401 O   0  0  0  0  0  0  0  0  0  0  0  0
    4.1349   -0.0012    2.2562 C   0  0  0  0  0  0  0  0  0  0  0  0
    3.4135   -0.7494    1.3168 C   0  0  0  0  0  0  0  0  0  0  0  0
    3.7047   -0.8504   -0.0401 C   0  0  0  0  0  0  0  0  0  0  0  0
    2.8589   -1.6093   -0.8897 O   0  0  0  0  0  0  0  0  0  0  0  0
    1.6827   -2.1671   -0.3731 C   0  0  0  0  0  0  0  0  0  0  0  0
    1.1949   -3.4780   -0.2455 C   0  0  0  0  0  0  0  0  0  0  0  0
    0.8986   -3.8441    1.0580 C   0  0  0  0  0  0  0  0  0  0  0  0
    1.2890   -5.2119    1.7160 C   0  0  3  0  0  0  0  0  0  0  0  0
    2.3744   -6.0262    0.9628 O   0  0  0  0  0  0  0  0  0  0  0  0
    3.1920   -5.6998   -0.1269 C   0  0  0  0  0  0  0  0  0  0  0  0
    3.6563   -4.4571   -0.3988 C   0  0  0  0  0  0  0  0  0  0  0  0
    3.8407   -3.4794    0.5124 O   0  0  0  0  0  0  0  0  0  0  0  0
    4.2369   -3.7439    1.8317 C   0  0  0  0  0  0  0  0  0  0  0  0
    3.7635   -4.0289   -1.7719 C   0  0  0  0  0  0  0  0  0  0  0  0
    4.0505   -4.7671   -2.8824 C   0  0  0  0  0  0  0  0  0  0  0  0
    4.3650   -3.8808   -4.2437 C   0  0  3  0  0  0  0  0  0  0  0  0
    3.8150   -4.4036   -5.5080 O   0  0  0  0  0  0  0  0  0  0  0  0
    4.4174   -5.4057   -6.2672 C   0  0  0  0  0  0  0  0  0  0  0  0
    3.8689   -5.7518   -7.5495 C   0  0  0  0  0  0  0  0  0  0  0  0
    2.9105   -4.9212   -8.1098 O   0  0  0  0  0  0  0  0  0  0  0  0
    2.6812   -5.0857   -9.5203 C   0  0  0  0  0  0  0  0  0  0  0  0
    4.3138   -6.9159   -8.2424 C   0  0  0  0  0  0  0  0  0  0  0  0
    5.3113   -7.7306   -7.7193 C   0  0  0  0  0  0  0  0  0  0  0  0
    5.8059   -8.9806   -8.3301 C   0  0  0  0  0  0  0  0  0  0  0  0
    5.9914   -9.2347   -9.6380 C   0  0  0  0  0  0  0  0  0  0  0  0
    6.6759  -10.4584  -10.1836 C   0  0  0  0  0  0  0  0  0  0  0  0
    7.0977  -11.3299   -9.1415 O   0  0  0  0  0  0  0  0  0  0  0  0
    5.8783   -7.3563   -6.4989 C   0  0  0  0  0  0  0  0  0  0  0  0
    5.5018   -6.1818   -5.8282 C   0  0  0  0  0  0  0  0  0  0  0  0
    6.1119   -5.8758   -4.6544 O   0  0  0  0  0  0  0  0  0  0  0  0
    7.5312   -5.8949   -4.5771 C   0  0  0  0  0  0  0  0  0  0  0  0
    4.1847   -2.1191   -4.1244 C   0  0  3  0  0  0  0  0  0  0  0  0
    5.0713   -1.1926   -5.0432 C   0  0  0  0  0  0  0  0  0  0  0  0
    6.4754   -1.2849   -4.8255 O   0  0  0  0  0  0  0  0  0  0  0  0
    2.8409   -1.4559   -3.9520 O   0  0  0  0  0  0  0  0  0  0  0  0
    2.3439   -0.8366   -5.0826 C   0  0  0  0  0  0  0  0  0  0  0  0
    2.4555   -1.6224   -6.2358 C   0  0  0  0  0  0  0  0  0  0  0  0
    2.3089   -1.1224   -7.5173 C   0  0  0  0  0  0  0  0  0  0  0  0
    1.7289    0.1145   -7.7091 C   0  0  0  0  0  0  0  0  0  0  0  0
    1.4441    0.6023   -9.0764 C   0  0  0  0  0  0  0  0  0  0  0  0
    1.1587   -0.2082  -10.1279 C   0  0  0  0  0  0  0  0  0  0  0  0
    0.4751    0.1999  -11.4050 C   0  0  0  0  0  0  0  0  0  0  0  0
    0.7956   -0.5493  -12.5450 O   0  0  0  0  0  0  0  0  0  0  0  0
    1.3945    0.8391   -6.5489 C   0  0  0  0  0  0  0  0  0  0  0  0
    1.8261    0.4650   -5.2383 C   0  0  0  0  0  0  0  0  0  0  0  0
    1.7185    1.5748   -4.4503 O   0  0  0  0  0  0  0  0  0  0  0  0
    1.8297    1.7377   -3.0504 C   0  0  0  0  0  0  0  0  0  0  0  0
    4.2218   -6.1004   -2.4373 C   0  0  0  0  0  0  0  0  0  0  0  0
    3.7935   -6.5703   -1.0560 C   0  0  0  0  0  0  0  0  0  0  0  0
    4.0729   -7.9017   -0.7319 O   0  0  0  0  0  0  0  0  0  0  0  0
    4.9338   -8.2278    0.3161 C   0  0  0  0  0  0  0  0  0  0  0  0
    5.2494   -9.5528    0.6343 C   0  0  0  0  0  0  0  0  0  0  0  0
    4.7381  -10.6784    0.0302 O   0  0  0  0  0  0  0  0  0  0  0  0
    3.9846  -10.5282   -1.1732 C   0  0  0  0  0  0  0  0  0  0  0  0
    6.0647   -9.8316    1.7940 C   0  0  0  0  0  0  0  0  0  0  0  0
    6.6933   -8.7973    2.5179 C   0  0  0  0  0  0  0  0  0  0  0  0
    7.3581   -8.8405    3.8403 C   0  0  0  0  0  0  0  0  0  0  0  0
    8.5622   -9.3965    4.0682 C   0  0  0  0  0  0  0  0  0  0  0  0
    9.4819   -9.1749    5.2518 C   0  0  0  0  0  0  0  0  0  0  0  0
    9.1313   -8.0521    6.0528 O   0  0  0  0  0  0  0  0  0  0  0  0
    6.4554   -7.5046    2.0931 C   0  0  0  0  0  0  0  0  0  0  0  0
    5.3237   -7.3405    1.3161 C   0  0  0  0  0  0  0  0  0  0  0  0
    4.2088   -6.9404    2.0419 O   0  0  0  0  0  0  0  0  0  0  0  0
    4.1660   -7.0768    3.4499 C   0  0  0  0  0  0  0  0  0  0  0  0
    1.4087   -5.1021    3.4945 C   0  0  3  0  0  0  0  0  0  0  0  0
    0.1506   -4.5104    4.2430 C   0  0  0  0  0  0  0  0  0  0  0  0
   -1.0444   -5.2298    3.9705 O   0  0  0  0  0  0  0  0  0  0  0  0
    1.6570   -6.3478    4.2479 O   0  0  0  0  0  0  0  0  0  0  0  0
    1.9290   -6.3285    5.6411 C   0  0  0  0  0  0  0  0  0  0  0  0
    1.2908   -7.2869    6.4640 C   0  0  0  0  0  0  0  0  0  0  0  0
    0.3117   -8.1787    6.0996 O   0  0  0  0  0  0  0  0  0  0  0  0
    0.2997   -8.6181    4.7534 C   0  0  0  0  0  0  0  0  0  0  0  0
    1.5414   -7.3523    7.8676 C   0  0  0  0  0  0  0  0  0  0  0  0
    2.4512   -6.5073    8.5114 C   0  0  0  0  0  0  0  0  0  0  0  0
    2.5654   -6.4716    9.9928 C   0  0  0  0  0  0  0  0  0  0  0  0
    3.6690   -6.5605   10.7652 C   0  0  0  0  0  0  0  0  0  0  0  0
    3.6676   -6.3018   12.2538 C   0  0  0  0  0  0  0  0  0  0  0  0
    4.2493   -7.3879   12.9575 O   0  0  0  0  0  0  0  0  0  0  0  0
    3.1028   -5.5651    7.7060 C   0  0  0  0  0  0  0  0  0  0  0  0
    2.8455   -5.4544    6.3031 C   0  0  0  0  0  0  0  0  0  0  0  0
    3.3705   -4.4182    5.5774 O   0  0  0  0  0  0  0  0  0  0  0  0
    4.6742   -3.9311    5.8763 C   0  0  0  0  0  0  0  0  0  0  0  0
    0.5009   -2.7327    1.7944 C   0  0  0  0  0  0  0  0  0  0  0  0
    0.2414   -1.4498    1.2099 C   0  0  0  0  0  0  0  0  0  0  0  0
    0.6827   -0.5882    2.2508 O   0  0  0  0  0  0  0  0  0  0  0  0
    0.0689    0.6227    2.6008 C   0  0  0  0  0  0  0  0  0  0  0  0
    0.7185   -1.2958   -0.0899 C   0  0  0  0  0  0  0  0  0  0  0  0
    0.4217   -0.7643   -1.3151 O   0  0  0  0  0  0  0  0  0  0  0  0
   -0.8402   -0.2061   -1.6029 C   0  0  3  0  0  0  0  0  0  0  0  0
   -0.7685    0.9924   -0.6129 C   0  0  0  0  0  0  0  0  0  0  0  0
   -1.7059    0.7307    0.4271 O   0  0  0  0  0  0  0  0  0  0  0  0
   -1.0252    0.1466   -3.2047 C   0  0  3  0  0  0  0  0  0  0  0  0
   -1.1677   -1.0522   -4.1806 O   0  0  0  0  0  0  0  0  0  0  0  0
   -1.4275   -0.8673   -5.5496 C   0  0  0  0  0  0  0  0  0  0  0  0
   -0.8792   -1.6356   -6.6238 C   0  0  0  0  0  0  0  0  0  0  0  0
   -1.1173   -1.2459   -8.0134 C   0  0  0  0  0  0  0  0  0  0  0  0
   -1.8769   -0.1106   -8.3273 C   0  0  0  0  0  0  0  0  0  0  0  0
   -1.8061    0.8454   -9.4913 C   0  0  0  0  0  0  0  0  0  0  0  0
   -2.6079    1.1630  -10.5298 C   0  0  0  0  0  0  0  0  0  0  0  0
   -2.2485    2.1868  -11.6072 C   0  0  0  0  0  0  0  0  0  0  0  0
   -2.6013    1.6787  -12.8969 O   0  0  0  0  0  0  0  0  0  0  0  0
   -2.6773    0.3765   -7.2796 C   0  0  0  0  0  0  0  0  0  0  0  0
   -2.4633   -0.0723   -5.9497 C   0  0  0  0  0  0  0  0  0  0  0  0
   -3.5036    0.2620   -5.1254 O   0  0  0  0  0  0  0  0  0  0  0  0
   -3.8970   -0.8887   -4.3622 C   0  0  0  0  0  0  0  0  0  0  0  0
   -1.8566    1.4848   -3.2653 C   0  0  0  0  0  0  0  0  0  0  0  0
   -1.4591    2.5372   -4.0754 C   0  0  0  0  0  0  0  0  0  0  0  0
   -2.0482    3.8250   -3.9779 C   0  0  0  0  0  0  0  0  0  0  0  0
   -1.5107    4.7844   -4.8108 O   0  0  0  0  0  0  0  0  0  0  0  0
   -1.5547    4.4344   -6.1953 C   0  0  0  0  0  0  0  0  0  0  0  0
   -3.0250    4.1526   -2.9775 C   0  0  0  0  0  0  0  0  0  0  0  0
   -3.6505    5.3794   -2.7971 O   0  0  0  0  0  0  0  0  0  0  0  0
   -3.4943    6.3155   -3.7790 C   0  0  0  0  0  0  0  0  0  0  0  0
   -2.4317    7.2064   -3.7124 C   0  0  0  0  0  0  0  0  0  0  0  0
   -2.0832    7.9411   -4.8504 C   0  0  0  0  0  0  0  0  0  0  0  0
   -1.1619    9.0560   -4.6244 C   0  0  0  0  0  0  0  0  0  0  0  0
   -0.2039    9.5141   -5.4392 C   0  0  0  0  0  0  0  0  0  0  0  0
    0.5844   10.7402   -5.1105 C   0  0  0  0  0  0  0  0  0  0  0  0
    1.9481   10.3818   -4.9936 O   0  0  0  0  0  0  0  0  0  0  0  0
   -2.7415    7.6873   -6.0717 C   0  0  0  0  0  0  0  0  0  0  0  0
   -3.8842    6.8810   -6.0815 C   0  0  0  0  0  0  0  0  0  0  0  0
   -4.6901    6.7388   -7.1813 O   0  0  0  0  0  0  0  0  0  0  0  0
   -4.1260    5.9779   -8.2549 C   0  0  0  0  0  0  0  0  0  0  0  0
   -4.3256    6.3188   -4.8864 C   0  0  0  0  0  0  0  0  0  0  0  0
   -5.5824    5.7967   -4.7893 O   0  0  0  0  0  0  0  0  0  0  0  0
   -5.9898    5.9761   -5.6532 H   0  0  0  0  0  0  0  0  0  0  0  0
   -3.3987    3.1403   -2.0964 C   0  0  0  0  0  0  0  0  0  0  0  0
   -4.2853    3.1561   -1.0348 O   0  0  0  0  0  0  0  0  0  0  0  0
   -4.8373    4.1679   -0.2586 C   0  0  0  0  0  0  0  0  0  0  0  0
   -4.2515    5.3526    0.2156 C   0  0  0  0  0  0  0  0  0  0  0  0
   -3.1171    5.9847   -0.2469 O   0  0  0  0  0  0  0  0  0  0  0  0
   -1.8784    5.3996    0.1374 C   0  0  0  0  0  0  0  0  0  0  0  0
   -4.9329    6.1393    1.1796 C   0  0  0  0  0  0  0  0  0  0  0  0
   -6.1365    5.7191    1.7732 C   0  0  0  0  0  0  0  0  0  0  0  0
   -6.6191    6.5364    2.9171 C   0  0  0  0  0  0  0  0  0  0  0  0
   -7.0892    6.0054    4.0606 C   0  0  0  0  0  0  0  0  0  0  0  0
   -7.3868    6.7109    5.3526 C   0  0  0  0  0  0  0  0  0  0  0  0
   -6.9558    8.0609    5.3328 O   0  0  0  0  0  0  0  0  0  0  0  0
   -6.7770    4.5745    1.2574 C   0  0  0  0  0  0  0  0  0  0  0  0
   -6.1467    3.7960    0.2600 C   0  0  0  0  0  0  0  0  0  0  0  0
   -6.8535    2.8186   -0.4491 O   0  0  0  0  0  0  0  0  0  0  0  0
   -7.6655    1.7894    0.0360 C   0  0  0  0  0  0  0  0  0  0  0  0
   -7.4280    0.9748    1.1677 C   0  0  0  0  0  0  0  0  0  0  0  0
   -6.6956    1.0054    2.3070 O   0  0  0  0  0  0  0  0  0  0  0  0
   -5.7306    1.8694    2.8353 C   0  0  0  0  0  0  0  0  0  0  0  0
   -8.0701   -0.2961    1.2280 C   0  0  0  0  0  0  0  0  0  0  0  0
   -8.9057   -0.8187    0.2438 C   0  0  0  0  0  0  0  0  0  0  0  0
   -9.3210   -2.2314    0.3676 C   0  0  0  0  0  0  0  0  0  0  0  0
  -10.2543   -2.8954   -0.3363 C   0  0  0  0  0  0  0  0  0  0  0  0
  -10.6269   -4.3180   -0.0338 C   0  0  0  0  0  0  0  0  0  0  0  0
  -11.9794   -4.3408    0.3891 O   0  0  0  0  0  0  0  0  0  0  0  0
   -9.2699    0.0359   -0.7836 C   0  0  0  0  0  0  0  0  0  0  0  0
   -8.6952    1.3266   -0.9227 C   0  0  0  0  0  0  0  0  0  0  0  0
   -9.1601    2.1709   -1.9846 O   0  0  0  0  0  0  0  0  0  0  0  0
  -10.1027    1.6923   -2.9408 C   0  0  0  0  0  0  0  0  0  0  0  0
  -11.3990    2.2283   -3.1053 C   0  0  0  0  0  0  0  0  0  0  0  0
  -12.0080    3.2801   -2.4775 O   0  0  0  0  0  0  0  0  0  0  0  0
  -11.3506    4.0480   -1.5013 C   0  0  0  0  0  0  0  0  0  0  0  0
  -12.3360    1.6102   -4.0029 C   0  0  0  0  0  0  0  0  0  0  0  0
  -12.0470    0.4526   -4.7287 C   0  0  0  0  0  0  0  0  0  0  0  0
  -13.1230   -0.5149   -5.1629 C   0  0  0  0  0  0  0  0  0  0  0  0
  -14.4632   -0.3326   -5.1585 C   0  0  0  0  0  0  0  0  0  0  0  0
  -15.5065   -1.4212   -5.0022 C   0  0  0  0  0  0  0  0  0  0  0  0
  -15.0668   -2.3915   -4.0599 O   0  0  0  0  0  0  0  0  0  0  0  0
  -10.6947    0.0639   -4.7297 C   0  0  0  0  0  0  0  0  0  0  0  0
   -9.7385    0.6570   -3.8454 C   0  0  0  0  0  0  0  0  0  0  0  0
   -8.4254    0.2662   -3.7692 O   0  0  0  0  0  0  0  0  0  0  0  0
   -8.0565   -1.0262   -4.2199 C   0  0  0  0  0  0  0  0  0  0  0  0
   -2.8712    1.8209   -2.3195 C   0  0  0  0  0  0  0  0  0  0  0  0
    7.5410   -1.5558   -1.5884 H   0  0  0  0  0  0  0  0  0  0  0  0
    7.5119   -0.1602   -0.5553 H   0  0  0  0  0  0  0  0  0  0  0  0
    7.4095    0.0646   -2.3061 H   0  0  0  0  0  0  0  0  0  0  0  0
    6.3522    1.2686    0.0914 H   0  0  0  0  0  0  0  0  0  0  0  0
    6.4694    2.4796    2.0404 H   0  0  0  0  0  0  0  0  0  0  0  0
    5.8238    0.9418    4.6020 H   0  0  0  0  0  0  0  0  0  0  0  0
    8.0852    2.0081    5.0157 H   0  0  0  0  0  0  0  0  0  0  0  0
    6.8066    3.1988    5.3902 H   0  0  0  0  0  0  0  0  0  0  0  0
    8.7450    3.2001    3.4517 H   0  0  0  0  0  0  0  0  0  0  0  0
    3.8256   -0.0618    3.2930 H   0  0  0  0  0  0  0  0  0  0  0  0
    2.6653   -1.3772    1.7485 H   0  0  0  0  0  0  0  0  0  0  0  0
    1.3467   -4.2553   -0.9819 H   0  0  0  0  0  0  0  0  0  0  0  0
    0.4173   -5.8724    1.5972 H   0  0  0  0  0  0  0  0  0  0  0  0
    3.5670   -3.2127    2.5118 H   0  0  0  0  0  0  0  0  0  0  0  0
    5.2372   -3.3404    1.9652 H   0  0  0  0  0  0  0  0  0  0  0  0
    4.2253   -4.7785    2.1059 H   0  0  0  0  0  0  0  0  0  0  0  0
    3.4351   -3.0489   -2.0290 H   0  0  0  0  0  0  0  0  0  0  0  0
    5.4556   -3.8738   -4.3285 H   0  0  0  0  0  0  0  0  0  0  0  0
    2.0845   -4.2441   -9.8868 H   0  0  0  0  0  0  0  0  0  0  0  0
    2.1108   -6.0006   -9.7230 H   0  0  0  0  0  0  0  0  0  0  0  0
    3.6192   -5.0853  -10.0920 H   0  0  0  0  0  0  0  0  0  0  0  0
    3.8602   -7.2266   -9.1802 H   0  0  0  0  0  0  0  0  0  0  0  0
    6.1300   -9.7349   -7.6129 H   0  0  0  0  0  0  0  0  0  0  0  0
    5.7011   -8.5031  -10.3874 H   0  0  0  0  0  0  0  0  0  0  0  0
    7.5802  -10.1457  -10.7163 H   0  0  0  0  0  0  0  0  0  0  0  0
    6.0352  -11.0063  -10.8823 H   0  0  0  0  0  0  0  0  0  0  0  0
    7.7128  -11.9488   -9.5762 H   0  0  0  0  0  0  0  0  0  0  0  0
    6.5945   -8.0222   -6.0227 H   0  0  0  0  0  0  0  0  0  0  0  0
    7.9133   -4.8695   -4.5791 H   0  0  0  0  0  0  0  0  0  0  0  0
    8.0259   -6.4696   -5.3624 H   0  0  0  0  0  0  0  0  0  0  0  0
    7.7705   -6.3437   -3.6110 H   0  0  0  0  0  0  0  0  0  0  0  0
    4.6496   -1.9451   -3.1545 H   0  0  0  0  0  0  0  0  0  0  0  0
    4.8031   -0.1432   -4.8310 H   0  0  0  0  0  0  0  0  0  0  0  0
    4.8943   -1.3370   -6.1105 H   0  0  0  0  0  0  0  0  0  0  0  0
    6.8091   -0.3709   -4.9231 H   0  0  0  0  0  0  0  0  0  0  0  0
    2.8006   -2.6420   -6.1583 H   0  0  0  0  0  0  0  0  0  0  0  0
    2.6141   -1.7597   -8.3381 H   0  0  0  0  0  0  0  0  0  0  0  0
    1.2933    1.6763   -9.1412 H   0  0  0  0  0  0  0  0  0  0  0  0
    1.2056   -1.2876  -10.0066 H   0  0  0  0  0  0  0  0  0  0  0  0
    0.5866    1.2702  -11.5931 H   0  0  0  0  0  0  0  0  0  0  0  0
   -0.5813   -0.0521  -11.3086 H   0  0  0  0  0  0  0  0  0  0  0  0
    1.7372   -0.7576  -12.5707 H   0  0  0  0  0  0  0  0  0  0  0  0
    0.7575    1.7233   -6.6315 H   0  0  0  0  0  0  0  0  0  0  0  0
    0.8465    1.8420   -2.5902 H   0  0  0  0  0  0  0  0  0  0  0  0
    2.2469    2.7373   -2.8609 H   0  0  0  0  0  0  0  0  0  0  0  0
    2.3986    0.9697   -2.5316 H   0  0  0  0  0  0  0  0  0  0  0  0
    4.7043   -6.8428   -3.0686 H   0  0  0  0  0  0  0  0  0  0  0  0
    3.5827  -11.5087   -1.4448 H   0  0  0  0  0  0  0  0  0  0  0  0
    4.6325  -10.1920   -1.9897 H   0  0  0  0  0  0  0  0  0  0  0  0
    3.1087   -9.8810   -1.0572 H   0  0  0  0  0  0  0  0  0  0  0  0
    6.1265  -10.8550    2.1554 H   0  0  0  0  0  0  0  0  0  0  0  0
    6.9224   -8.2010    4.6032 H   0  0  0  0  0  0  0  0  0  0  0  0
    8.9704  -10.0475    3.3148 H   0  0  0  0  0  0  0  0  0  0  0  0
   10.4810   -8.9744    4.8441 H   0  0  0  0  0  0  0  0  0  0  0  0
    9.5555  -10.0604    5.8944 H   0  0  0  0  0  0  0  0  0  0  0  0
    9.9663   -7.6266    6.3196 H   0  0  0  0  0  0  0  0  0  0  0  0
    6.7817   -6.6597    2.7064 H   0  0  0  0  0  0  0  0  0  0  0  0
    3.4410   -7.8283    3.6853 H   0  0  0  0  0  0  0  0  0  0  0  0
    3.8889   -6.0802    3.8136 H   0  0  0  0  0  0  0  0  0  0  0  0
    5.0876   -7.3060    3.9827 H   0  0  0  0  0  0  0  0  0  0  0  0
    2.2629   -4.4499    3.6488 H   0  0  0  0  0  0  0  0  0  0  0  0
   -0.0737   -3.4574    4.1134 H   0  0  0  0  0  0  0  0  0  0  0  0
    0.2954   -4.5500    5.3288 H   0  0  0  0  0  0  0  0  0  0  0  0
   -1.4145   -4.9009    3.1374 H   0  0  0  0  0  0  0  0  0  0  0  0
   -0.2393   -9.5683    4.7245 H   0  0  0  0  0  0  0  0  0  0  0  0
    1.3093   -8.8083    4.3807 H   0  0  0  0  0  0  0  0  0  0  0  0
   -0.2447   -7.9147    4.1164 H   0  0  0  0  0  0  0  0  0  0  0  0
    0.9829   -8.0833    8.4557 H   0  0  0  0  0  0  0  0  0  0  0  0
    1.6113   -6.2996   10.4873 H   0  0  0  0  0  0  0  0  0  0  0  0
    4.6466   -6.7704   10.3367 H   0  0  0  0  0  0  0  0  0  0  0  0
    2.6661   -6.1182   12.6570 H   0  0  0  0  0  0  0  0  0  0  0  0
    4.2738   -5.4157   12.4672 H   0  0  0  0  0  0  0  0  0  0  0  0
    3.6375   -8.1397   12.8924 H   0  0  0  0  0  0  0  0  0  0  0  0
    3.7812   -4.8801    8.2076 H   0  0  0  0  0  0  0  0  0  0  0  0
    4.6416   -2.8378    5.8474 H   0  0  0  0  0  0  0  0  0  0  0  0
    5.3456   -4.2694    5.0824 H   0  0  0  0  0  0  0  0  0  0  0  0
    5.0995   -4.2342    6.8349 H   0  0  0  0  0  0  0  0  0  0  0  0
    0.8051   -2.6848    2.8316 H   0  0  0  0  0  0  0  0  0  0  0  0
    0.3028    0.7991    3.6585 H   0  0  0  0  0  0  0  0  0  0  0  0
   -1.0164    0.6169    2.5438 H   0  0  0  0  0  0  0  0  0  0  0  0
    0.5371    1.4387    2.0464 H   0  0  0  0  0  0  0  0  0  0  0  0
   -1.5939   -0.9607   -1.3520 H   0  0  0  0  0  0  0  0  0  0  0  0
   -0.9387    1.9904   -1.0004 H   0  0  0  0  0  0  0  0  0  0  0  0
    0.2235    1.1082   -0.1555 H   0  0  0  0  0  0  0  0  0  0  0  0
   -1.6620   -0.2169    0.6432 H   0  0  0  0  0  0  0  0  0  0  0  0
   -0.0197    0.3909   -3.4889 H   0  0  0  0  0  0  0  0  0  0  0  0
   -0.2183   -2.4861   -6.4504 H   0  0  0  0  0  0  0  0  0  0  0  0
   -0.6128   -1.8291   -8.7982 H   0  0  0  0  0  0  0  0  0  0  0  0
   -0.9405    1.4936   -9.3716 H   0  0  0  0  0  0  0  0  0  0  0  0
   -3.5607    0.6586  -10.6557 H   0  0  0  0  0  0  0  0  0  0  0  0
   -1.1838    2.4401  -11.6516 H   0  0  0  0  0  0  0  0  0  0  0  0
   -2.7775    3.1363  -11.4728 H   0  0  0  0  0  0  0  0  0  0  0  0
   -2.1463    0.8297  -13.0232 H   0  0  0  0  0  0  0  0  0  0  0  0
   -3.4174    1.0968   -7.4639 H   0  0  0  0  0  0  0  0  0  0  0  0
   -4.9540   -0.7897   -4.1787 H   0  0  0  0  0  0  0  0  0  0  0  0
   -3.3787   -0.8974   -3.4003 H   0  0  0  0  0  0  0  0  0  0  0  0
   -3.7076   -1.8413   -4.8793 H   0  0  0  0  0  0  0  0  0  0  0  0
   -0.6197    2.4108   -4.7551 H   0  0  0  0  0  0  0  0  0  0  0  0
   -1.4296    5.3490   -6.7816 H   0  0  0  0  0  0  0  0  0  0  0  0
   -2.5135    3.9814   -6.4707 H   0  0  0  0  0  0  0  0  0  0  0  0
   -0.7214    3.7825   -6.4677 H   0  0  0  0  0  0  0  0  0  0  0  0
   -1.8588    7.2807   -2.7926 H   0  0  0  0  0  0  0  0  0  0  0  0
   -1.3404    9.5707   -3.6798 H   0  0  0  0  0  0  0  0  0  0  0  0
    0.0168    9.0230   -6.3806 H   0  0  0  0  0  0  0  0  0  0  0  0
    0.2665   11.2077   -4.1720 H   0  0  0  0  0  0  0  0  0  0  0  0
    0.4753   11.4794   -5.9091 H   0  0  0  0  0  0  0  0  0  0  0  0
    2.0165    9.8251   -4.2000 H   0  0  0  0  0  0  0  0  0  0  0  0
   -2.4241    8.1691   -6.9894 H   0  0  0  0  0  0  0  0  0  0  0  0
   -4.3484    4.9099   -8.1351 H   0  0  0  0  0  0  0  0  0  0  0  0
   -3.0517    6.1243   -8.3996 H   0  0  0  0  0  0  0  0  0  0  0  0
   -4.6310    6.3030   -9.1724 H   0  0  0  0  0  0  0  0  0  0  0  0
   -1.0804    5.9605   -0.3637 H   0  0  0  0  0  0  0  0  0  0  0  0
   -1.8047    4.3586   -0.1777 H   0  0  0  0  0  0  0  0  0  0  0  0
   -1.7094    5.4829    1.2165 H   0  0  0  0  0  0  0  0  0  0  0  0
   -4.4926    7.0925    1.4687 H   0  0  0  0  0  0  0  0  0  0  0  0
   -6.4374    7.6080    2.8349 H   0  0  0  0  0  0  0  0  0  0  0  0
   -7.2289    4.9269    4.1094 H   0  0  0  0  0  0  0  0  0  0  0  0
   -6.8676    6.1926    6.1697 H   0  0  0  0  0  0  0  0  0  0  0  0
   -8.4595    6.6895    5.5632 H   0  0  0  0  0  0  0  0  0  0  0  0
   -6.9272    8.3539    6.2592 H   0  0  0  0  0  0  0  0  0  0  0  0
   -7.7627    4.2946    1.6210 H   0  0  0  0  0  0  0  0  0  0  0  0
   -5.2675    1.3234    3.6725 H   0  0  0  0  0  0  0  0  0  0  0  0
   -6.1899    2.7497    3.2891 H   0  0  0  0  0  0  0  0  0  0  0  0
   -4.9331    2.1041    2.1346 H   0  0  0  0  0  0  0  0  0  0  0  0
   -7.8627   -0.9253    2.1003 H   0  0  0  0  0  0  0  0  0  0  0  0
   -8.7914   -2.7912    1.1400 H   0  0  0  0  0  0  0  0  0  0  0  0
  -10.8174   -2.4259   -1.1381 H   0  0  0  0  0  0  0  0  0  0  0  0
  -10.0096   -4.7480    0.7629 H   0  0  0  0  0  0  0  0  0  0  0  0
  -10.5224   -4.9541   -0.9182 H   0  0  0  0  0  0  0  0  0  0  0  0
  -12.1003   -3.5943    1.0027 H   0  0  0  0  0  0  0  0  0  0  0  0
   -9.9864   -0.3319   -1.5067 H   0  0  0  0  0  0  0  0  0  0  0  0
  -12.1339    4.6226   -0.9930 H   0  0  0  0  0  0  0  0  0  0  0  0
  -10.6578    4.7598   -1.9555 H   0  0  0  0  0  0  0  0  0  0  0  0
  -10.8782    3.4229   -0.7449 H   0  0  0  0  0  0  0  0  0  0  0  0
  -13.3393    2.0332   -4.0670 H   0  0  0  0  0  0  0  0  0  0  0  0
  -12.7652   -1.5386   -5.2545 H   0  0  0  0  0  0  0  0  0  0  0  0
  -14.8866    0.6688   -5.1202 H   0  0  0  0  0  0  0  0  0  0  0  0
  -15.7913   -1.9115   -5.9402 H   0  0  0  0  0  0  0  0  0  0  0  0
  -16.4225   -0.9765   -4.5913 H   0  0  0  0  0  0  0  0  0  0  0  0
  -15.4012   -3.2534   -4.3514 H   0  0  0  0  0  0  0  0  0  0  0  0
  -10.3982   -0.7401   -5.4003 H   0  0  0  0  0  0  0  0  0  0  0  0
   -7.2642   -1.3844   -3.5539 H   0  0  0  0  0  0  0  0  0  0  0  0
   -7.6389   -0.9462   -5.2267 H   0  0  0  0  0  0  0  0  0  0  0  0
   -8.8612   -1.7659   -4.1842 H   0  0  0  0  0  0  0  0  0  0  0  0
   -3.1877    1.0607   -1.6049 H   0  0  0  0  0  0  0  0  0  0  0  0
  1  2  1  0  0  0  0
  1179  1  0  0  0  0
  1180  1  0  0  0  0
  1181  1  0  0  0  0
  2  3  1  0  0  0  0
  3  4  2  0  0  0  0
  3 12  1  0  0  0  0
  4  5  1  0  0  0  0
  4182  1  0  0  0  0
  5  6  1  0  0  0  0
  5 10  2  0  0  0  0
  6  7  2  0  0  0  0
  6183  1  0  0  0  0
  7  8  1  0  0  0  0
  7184  1  0  0  0  0
  8  9  1  0  0  0  0
  8185  1  0  0  0  0
  8186  1  0  0  0  0
  9187  1  0  0  0  0
 10 11  1  0  0  0  0
 10188  1  0  0  0  0
 11 12  2  0  0  0  0
 11189  1  0  0  0  0
 12 13  1  0  0  0  0
 13 14  1  0  0  0  0
 14 15  2  0  0  0  0
 14 96  1  0  0  0  0
 15 16  1  0  0  0  0
 15190  1  0  0  0  0
 16 17  1  0  0  0  0
 16 92  2  0  0  0  0
 17 18  1  0  0  0  0
 17 74  1  0  0  0  0
 17191  1  0  0  0  0
 18 19  1  0  0  0  0
 19 20  2  0  0  0  0
 19 58  1  0  0  0  0
 20 21  1  0  0  0  0
 20 23  1  0  0  0  0
 21 22  1  0  0  0  0
 22192  1  0  0  0  0
 22193  1  0  0  0  0
 22194  1  0  0  0  0
 23 24  2  0  0  0  0
 23195  1  0  0  0  0
 24 25  1  0  0  0  0
 24 57  1  0  0  0  0
 25 26  1  0  0  0  0
 25 41  1  0  0  0  0
 25196  1  0  0  0  0
 26 27  1  0  0  0  0
 27 28  2  0  0  0  0
 27 38  1  0  0  0  0
 28 29  1  0  0  0  0
 28 31  1  0  0  0  0
 29 30  1  0  0  0  0
 30197  1  0  0  0  0
 30198  1  0  0  0  0
 30199  1  0  0  0  0
 31 32  2  0  0  0  0
 31200  1  0  0  0  0
 32 33  1  0  0  0  0
 32 37  1  0  0  0  0
 33 34  2  0  0  0  0
 33201  1  0  0  0  0
 34 35  1  0  0  0  0
 34202  1  0  0  0  0
 35 36  1  0  0  0  0
 35203  1  0  0  0  0
 35204  1  0  0  0  0
 36205  1  0  0  0  0
 37 38  2  0  0  0  0
 37206  1  0  0  0  0
 38 39  1  0  0  0  0
 39 40  1  0  0  0  0
 40207  1  0  0  0  0
 40208  1  0  0  0  0
 40209  1  0  0  0  0
 41 42  1  0  0  0  0
 41 44  1  0  0  0  0
 41210  1  0  0  0  0
 42 43  1  0  0  0  0
 42211  1  0  0  0  0
 42212  1  0  0  0  0
 43213  1  0  0  0  0
 44 45  1  0  0  0  0
 45 46  2  0  0  0  0
 45 54  1  0  0  0  0
 46 47  1  0  0  0  0
 46214  1  0  0  0  0
 47 48  2  0  0  0  0
 47215  1  0  0  0  0
 48 49  1  0  0  0  0
 48 53  1  0  0  0  0
 49 50  2  0  0  0  0
 49216  1  0  0  0  0
 50 51  1  0  0  0  0
 50217  1  0  0  0  0
 51 52  1  0  0  0  0
 51218  1  0  0  0  0
 51219  1  0  0  0  0
 52220  1  0  0  0  0
 53 54  2  0  0  0  0
 53221  1  0  0  0  0
 54 55  1  0  0  0  0
 55 56  1  0  0  0  0
 56222  1  0  0  0  0
 56223  1  0  0  0  0
 56224  1  0  0  0  0
 57 58  2  0  0  0  0
 57225  1  0  0  0  0
 58 59  1  0  0  0  0
 59 60  1  0  0  0  0
 60 61  2  0  0  0  0
 60 71  1  0  0  0  0
 61 62  1  0  0  0  0
 61 64  1  0  0  0  0
 62 63  1  0  0  0  0
 63226  1  0  0  0  0
 63227  1  0  0  0  0
 63228  1  0  0  0  0
 64 65  2  0  0  0  0
 64229  1  0  0  0  0
 65 66  1  0  0  0  0
 65 70  1  0  0  0  0
 66 67  2  0  0  0  0
 66230  1  0  0  0  0
 67 68  1  0  0  0  0
 67231  1  0  0  0  0
 68 69  1  0  0  0  0
 68232  1  0  0  0  0
 68233  1  0  0  0  0
 69234  1  0  0  0  0
 70 71  2  0  0  0  0
 70235  1  0  0  0  0
 71 72  1  0  0  0  0
 72 73  1  0  0  0  0
 73236  1  0  0  0  0
 73237  1  0  0  0  0
 73238  1  0  0  0  0
 74 75  1  0  0  0  0
 74 77  1  0  0  0  0
 74239  1  0  0  0  0
 75 76  1  0  0  0  0
 75240  1  0  0  0  0
 75241  1  0  0  0  0
 76242  1  0  0  0  0
 77 78  1  0  0  0  0
 78 79  2  0  0  0  0
 78 89  1  0  0  0  0
 79 80  1  0  0  0  0
 79 82  1  0  0  0  0
 80 81  1  0  0  0  0
 81243  1  0  0  0  0
 81244  1  0  0  0  0
 81245  1  0  0  0  0
 82 83  2  0  0  0  0
 82246  1  0  0  0  0
 83 84  1  0  0  0  0
 83 88  1  0  0  0  0
 84 85  2  0  0  0  0
 84247  1  0  0  0  0
 85 86  1  0  0  0  0
 85248  1  0  0  0  0
 86 87  1  0  0  0  0
 86249  1  0  0  0  0
 86250  1  0  0  0  0
 87251  1  0  0  0  0
 88 89  2  0  0  0  0
 88252  1  0  0  0  0
 89 90  1  0  0  0  0
 90 91  1  0  0  0  0
 91253  1  0  0  0  0
 91254  1  0  0  0  0
 91255  1  0  0  0  0
 92 93  1  0  0  0  0
 92256  1  0  0  0  0
 93 94  1  0  0  0  0
 93 96  2  0  0  0  0
 94 95  1  0  0  0  0
 95257  1  0  0  0  0
 95258  1  0  0  0  0
 95259  1  0  0  0  0
 96 97  1  0  0  0  0
 97 98  1  0  0  0  0
 98 99  1  0  0  0  0
 98101  1  0  0  0  0
 98260  1  0  0  0  0
 99100  1  0  0  0  0
 99261  1  0  0  0  0
 99262  1  0  0  0  0
100263  1  0  0  0  0
101102  1  0  0  0  0
101115  1  0  0  0  0
101264  1  0  0  0  0
102103  1  0  0  0  0
103104  2  0  0  0  0
103112  1  0  0  0  0
104105  1  0  0  0  0
104265  1  0  0  0  0
105106  2  0  0  0  0
105266  1  0  0  0  0
106107  1  0  0  0  0
106111  1  0  0  0  0
107108  2  0  0  0  0
107267  1  0  0  0  0
108109  1  0  0  0  0
108268  1  0  0  0  0
109110  1  0  0  0  0
109269  1  0  0  0  0
109270  1  0  0  0  0
110271  1  0  0  0  0
111112  2  0  0  0  0
111272  1  0  0  0  0
112113  1  0  0  0  0
113114  1  0  0  0  0
114273  1  0  0  0  0
114274  1  0  0  0  0
114275  1  0  0  0  0
115116  2  0  0  0  0
115178  1  0  0  0  0
116117  1  0  0  0  0
116276  1  0  0  0  0
117118  1  0  0  0  0
117120  2  0  0  0  0
118119  1  0  0  0  0
119277  1  0  0  0  0
119278  1  0  0  0  0
119279  1  0  0  0  0
120121  1  0  0  0  0
120136  1  0  0  0  0
121122  1  0  0  0  0
122123  2  0  0  0  0
122133  1  0  0  0  0
123124  1  0  0  0  0
123280  1  0  0  0  0
124125  1  0  0  0  0
124129  2  0  0  0  0
125126  2  0  0  0  0
125281  1  0  0  0  0
126127  1  0  0  0  0
126282  1  0  0  0  0
127128  1  0  0  0  0
127283  1  0  0  0  0
127284  1  0  0  0  0
128285  1  0  0  0  0
129130  1  0  0  0  0
129286  1  0  0  0  0
130131  1  0  0  0  0
130133  2  0  0  0  0
131132  1  0  0  0  0
132287  1  0  0  0  0
132288  1  0  0  0  0
132289  1  0  0  0  0
133134  1  0  0  0  0
134135  1  0  0  0  0
136137  1  0  0  0  0
136178  2  0  0  0  0
137138  1  0  0  0  0
138139  2  0  0  0  0
138149  1  0  0  0  0
139140  1  0  0  0  0
139142  1  0  0  0  0
140141  1  0  0  0  0
141290  1  0  0  0  0
141291  1  0  0  0  0
141292  1  0  0  0  0
142143  2  0  0  0  0
142293  1  0  0  0  0
143144  1  0  0  0  0
143148  1  0  0  0  0
144145  2  0  0  0  0
144294  1  0  0  0  0
145146  1  0  0  0  0
145295  1  0  0  0  0
146147  1  0  0  0  0
146296  1  0  0  0  0
146297  1  0  0  0  0
147298  1  0  0  0  0
148149  2  0  0  0  0
148299  1  0  0  0  0
149150  1  0  0  0  0
150151  1  0  0  0  0
151152  2  0  0  0  0
151162  1  0  0  0  0
152153  1  0  0  0  0
152155  1  0  0  0  0
153154  1  0  0  0  0
154300  1  0  0  0  0
154301  1  0  0  0  0
154302  1  0  0  0  0
155156  2  0  0  0  0
155303  1  0  0  0  0
156157  1  0  0  0  0
156161  1  0  0  0  0
157158  2  0  0  0  0
157304  1  0  0  0  0
158159  1  0  0  0  0
158305  1  0  0  0  0
159160  1  0  0  0  0
159306  1  0  0  0  0
159307  1  0  0  0  0
160308  1  0  0  0  0
161162  2  0  0  0  0
161309  1  0  0  0  0
162163  1  0  0  0  0
163164  1  0  0  0  0
164165  2  0  0  0  0
164175  1  0  0  0  0
165166  1  0  0  0  0
165168  1  0  0  0  0
166167  1  0  0  0  0
167310  1  0  0  0  0
167311  1  0  0  0  0
167312  1  0  0  0  0
168169  2  0  0  0  0
168313  1  0  0  0  0
169170  1  0  0  0  0
169174  1  0  0  0  0
170171  2  0  0  0  0
170314  1  0  0  0  0
171172  1  0  0  0  0
171315  1  0  0  0  0
172173  1  0  0  0  0
172316  1  0  0  0  0
172317  1  0  0  0  0
173318  1  0  0  0  0
174175  2  0  0  0  0
174319  1  0  0  0  0
175176  1  0  0  0  0
176177  1  0  0  0  0
177320  1  0  0  0  0
177321  1  0  0  0  0
177322  1  0  0  0  0
178323  1  0  0  0  0
M  END
